 PDE 2016 07 20 21 47 32.89   90.0000    0.0000   0.0 7.0 7.0 LOMONOSOV RIDGE
event name:           E30C64
time shift:           0.0000
half duration:        1.0000
latitude:            90.0000
longitude:            0.0000
depth:                0.0000
Mrr:            0.000000E+00
Mtt:            1.000000E+27
Mpp:           -1.000000E+27
Mrt:            0.000000E+00
Mrp:            0.000000E+00
Mtp:            1.000000E+27
