 PDE 1970 01 01 00 00 00.00   90.0000    0.0000   0.0 7.0 7.0 LOMONOSOV RIDGE
event name:  Northpole Quake
time shift:           0.0000
half duration:        1.0000
latitude:            90.0000
longitude:            0.0000
depth:                0.0000
Mrr:            0.000000E+00
Mtt:            1.000000E+27
Mpp:           -1.000000E+27
Mrt:            0.000000E+00
Mrp:            0.000000E+00
Mtp:            1.000000E+27
