PDE 2000  1  1  0 00 00.00  90.0000  000.0600 000.0 6.9 6.8 NORTHPOLE
event name:     northpo
time shift:      0.0000
half duration:  20.0000
latitude:      090.000
longitude:     000.000
depth:         000.0
Mrr:      1.000e20
Mtt:      1.000e20
Mpp:      1.000e20
Mrt:      0.000e21
Mrp:      0.000e21
Mtp:      0.000e20
